Version 4
SHEET 1 4644 2716
WIRE 1792 -1888 1424 -1888
WIRE 2384 -1888 2384 -2032
WIRE 2384 -1888 1792 -1888
WIRE 2544 -1888 2384 -1888
WIRE 3104 -1888 2544 -1888
WIRE 3104 -1776 3104 -1888
WIRE 1424 -1696 1424 -1888
WIRE 1792 -1600 1792 -1888
WIRE 2544 -1584 2544 -1888
WIRE 2864 -1536 2608 -1536
WIRE 3104 -1536 3104 -1696
WIRE 3104 -1536 2944 -1536
WIRE 1424 -1344 1424 -1616
WIRE 3104 -1344 3104 -1536
WIRE 1792 -1296 1792 -1536
WIRE 1792 -1296 1488 -1296
WIRE 2128 -1296 1792 -1296
WIRE 2544 -1296 2544 -1488
WIRE 2544 -1296 2208 -1296
WIRE 3040 -1296 2544 -1296
WIRE 2544 -1200 2544 -1296
WIRE 2384 -1040 2272 -1040
WIRE 2544 -1040 2544 -1120
WIRE 2544 -1040 2448 -1040
WIRE 2544 -928 2544 -1040
WIRE 2544 -736 2544 -848
WIRE 1424 -192 1424 -1248
WIRE 1424 -192 1168 -192
WIRE 1664 -192 1424 -192
WIRE 352 -64 352 -112
WIRE 576 0 576 -112
WIRE 352 48 352 16
WIRE 352 48 272 48
WIRE 272 64 272 48
WIRE 352 80 352 48
WIRE 352 208 352 160
WIRE 576 208 576 80
WIRE 1168 208 1168 -192
WIRE 1664 224 1664 -192
WIRE 1168 720 1168 288
WIRE 1664 720 1664 304
WIRE 1104 768 880 768
WIRE 1808 768 1728 768
WIRE 1920 768 1808 768
WIRE 2080 768 2000 768
WIRE 2352 768 2080 768
WIRE 3104 768 3104 -1248
WIRE 3104 768 2432 768
WIRE 3760 768 3104 768
WIRE 1808 864 1808 768
WIRE 2080 880 2080 768
WIRE 880 912 880 768
WIRE 3760 944 3760 768
WIRE 1808 992 1808 928
WIRE 2080 1040 2080 960
WIRE 880 1136 880 992
WIRE 2080 1136 2080 1104
WIRE 2480 1232 2336 1232
WIRE 3104 1232 3104 768
WIRE 3104 1232 2544 1232
WIRE 2640 1312 2496 1312
WIRE 3760 1344 3760 1024
WIRE 2496 1376 2496 1312
WIRE 1168 1424 1168 816
WIRE 2336 1424 2336 1232
WIRE 2336 1424 1168 1424
WIRE 2432 1424 2336 1424
WIRE 2640 1440 2640 1312
WIRE 1664 1696 1664 816
WIRE 1664 1696 1424 1696
WIRE 3104 1824 3104 1232
WIRE 1168 1856 1168 1424
WIRE 1664 1856 1664 1696
WIRE 2496 1872 2496 1472
WIRE 3040 1872 2496 1872
WIRE 1424 1904 1424 1696
WIRE 1424 1904 1232 1904
WIRE 1600 1904 1424 1904
WIRE 2496 2064 2496 1872
WIRE 3104 2144 3104 1920
WIRE 1664 2208 1664 1952
WIRE 1168 2224 1168 1952
WIRE 1168 2528 1168 2304
WIRE 1664 2528 1664 2288
WIRE 1664 2528 1168 2528
WIRE 2368 2528 1664 2528
WIRE 2496 2528 2496 2144
WIRE 2496 2528 2368 2528
WIRE 3104 2528 3104 2224
WIRE 3104 2528 2496 2528
WIRE 2368 2624 2368 2528
FLAG 576 208 0
FLAG 576 -112 Vin
FLAG 2544 -736 0
FLAG 2272 -1040 V+
FLAG 2080 1136 0
FLAG 880 1136 0
FLAG 2640 1440 0
FLAG 272 64 0
FLAG 352 -112 V+
FLAG 352 208 V-
FLAG 3760 1344 0
FLAG 2384 -2032 V+
FLAG 2368 2624 V-
FLAG 1808 992 Vin
FLAG 2080 768 Vo
DATAFLAG 1424 -192 ""
DATAFLAG 1424 -896 "-Ic(Q15)"
DATAFLAG 1168 32 "-I(R23)"
DATAFLAG 1664 32 "I(R22)"
DATAFLAG 1168 2096 ""
DATAFLAG 1664 2096 ""
DATAFLAG 1168 1424 ""
DATAFLAG 1664 1696 ""
DATAFLAG 2496 1872 ""
DATAFLAG 2496 1632 "Ic(Q18)"
DATAFLAG 3104 2048 ""
DATAFLAG 3104 2352 "I(R19)"
DATAFLAG 1424 -1488 ""
DATAFLAG 3104 -1552 ""
DATAFLAG 2544 -1296 ""
DATAFLAG 1776 -1296 ""
DATAFLAG 1168 960 "-Ic(Q11)"
DATAFLAG 1664 960 "-Ic(Q12)"
DATAFLAG 3424 768 ""
DATAFLAG 3104 1472 "Ic(Q9)"
SYMBOL res 1680 2304 R180
WINDOW 0 36 76 Left 2
WINDOW 3 36 40 Left 2
SYMATTR InstName R16
SYMATTR Value {ReFte}
SYMBOL res 1184 2320 R180
WINDOW 0 36 76 Left 2
WINDOW 3 36 40 Left 2
SYMATTR InstName R18
SYMATTR Value {ReFte}
SYMBOL npn 3040 1824 R0
SYMATTR InstName Q9
SYMATTR Value BC547B
SYMBOL voltage 576 -16 R0
WINDOW 123 24 124 Left 2
WINDOW 39 0 0 Left 2
SYMATTR Value2 AC 1
SYMATTR InstName V4
SYMATTR Value 0
SYMBOL res 3088 2128 R0
SYMATTR InstName R19
SYMATTR Value 10
SYMBOL res 2096 976 R180
WINDOW 0 36 76 Left 2
WINDOW 3 36 40 Left 2
SYMATTR InstName R20
SYMATTR Value {Rr2}
SYMBOL pnp 1104 816 M180
SYMATTR InstName Q11
SYMATTR Value BC557B
SYMBOL pnp 1728 816 R180
SYMATTR InstName Q12
SYMATTR Value BC557B
SYMBOL npn 1232 1856 M0
SYMATTR InstName Q13
SYMATTR Value BC547B
SYMBOL npn 1600 1856 R0
SYMATTR InstName Q14
SYMATTR Value BC547B
SYMBOL res 2448 752 R90
WINDOW 0 0 56 VBottom 2
WINDOW 3 32 56 VTop 2
SYMATTR InstName R21
SYMATTR Value {Rr1}
SYMBOL res 1648 208 R0
SYMATTR InstName R22
SYMATTR Value {ReDif}
SYMBOL res 1184 304 R180
WINDOW 0 36 76 Left 2
WINDOW 3 36 40 Left 2
SYMATTR InstName R23
SYMATTR Value {ReDif}
SYMBOL pnp 1488 -1248 R180
SYMATTR InstName Q15
SYMATTR Value BC557B
SYMBOL pnp 2608 -1488 R180
SYMATTR InstName Q16
SYMATTR Value BC557B
SYMBOL pnp 3040 -1248 M180
SYMATTR InstName Q17
SYMATTR Value BC557B
SYMBOL cap 1776 -1600 R0
SYMATTR InstName C5
SYMATTR Value 47µ
SYMBOL cap 2384 -1024 R270
WINDOW 0 32 32 VTop 2
WINDOW 3 0 32 VBottom 2
SYMATTR InstName C6
SYMATTR Value 47µ
SYMBOL res 1408 -1712 R0
SYMATTR InstName R24
SYMATTR Value 47
SYMBOL res 2960 -1552 R90
WINDOW 0 0 56 VBottom 2
WINDOW 3 32 56 VTop 2
SYMATTR InstName R25
SYMATTR Value 2.2k
SYMBOL res 3120 -1680 R180
WINDOW 0 36 76 Left 2
WINDOW 3 36 40 Left 2
SYMATTR InstName R26
SYMATTR Value 68
SYMBOL res 2560 -832 R180
WINDOW 0 36 76 Left 2
WINDOW 3 36 40 Left 2
SYMATTR InstName R27
SYMATTR Value 10k
SYMBOL res 2560 -1104 R180
WINDOW 0 36 76 Left 2
WINDOW 3 36 40 Left 2
SYMATTR InstName R28
SYMATTR Value 10k
SYMBOL res 2112 -1280 R270
WINDOW 0 32 56 VTop 2
WINDOW 3 0 56 VBottom 2
SYMATTR InstName R29
SYMATTR Value 2.2k
SYMBOL res 864 896 R0
SYMATTR InstName R30
SYMATTR Value {Rr1}
SYMBOL cap 2064 1040 R0
SYMATTR InstName C8
SYMATTR Value 1000µ
SYMBOL npn 2432 1376 R0
SYMATTR InstName Q18
SYMATTR Value BC547B
SYMBOL res 2480 2048 R0
SYMATTR InstName R31
SYMATTR Value 2.2k
SYMBOL cap 2544 1216 R90
WINDOW 0 0 32 VBottom 2
WINDOW 3 32 32 VTop 2
SYMATTR InstName Ccomp1
SYMATTR Value {Ccomp}
SYMBOL voltage 352 -80 R0
WINDOW 123 0 0 Left 2
WINDOW 39 0 0 Left 2
SYMATTR InstName V7
SYMATTR Value {Vcc}
SYMBOL voltage 352 64 R0
WINDOW 123 0 0 Left 2
WINDOW 39 0 0 Left 2
SYMATTR InstName V8
SYMATTR Value {Vcc}
SYMBOL res 3744 928 R0
SYMATTR InstName R1
SYMATTR Value 100k
SYMBOL ind 1904 784 R270
WINDOW 0 32 56 VTop 2
WINDOW 3 5 56 VBottom 2
SYMATTR InstName L1
SYMATTR Value 100
SYMBOL cap 1792 864 R0
SYMATTR InstName C1
SYMATTR Value 100
TEXT 64 -1608 Left 2 !.param ReDif=100 ReFte=68
TEXT 64 -1640 Left 2 !.param Rr2=470 Rr1=12k
TEXT 64 -1672 Left 2 !.param Ccomp=100p
TEXT 64 -1704 Left 2 !.param Vcc=30
TEXT 72 -1568 Left 2 !.ac dec 1000 1 10meg
