Version 4
SHEET 1 2520 1220
WIRE 304 -1360 304 -1424
WIRE 304 -1360 112 -1360
WIRE 496 -1360 304 -1360
WIRE 1696 -1360 1696 -1424
WIRE 1696 -1360 1456 -1360
WIRE 1904 -1360 1696 -1360
WIRE 496 -1328 496 -1360
WIRE 496 -1200 496 -1264
WIRE 112 -1184 112 -1360
WIRE 1456 -1104 1456 -1360
WIRE 1904 -1104 1904 -1360
WIRE 496 -1088 496 -1136
WIRE 1696 -1056 1520 -1056
WIRE 1840 -1056 1696 -1056
WIRE 496 -960 496 -1024
WIRE 1696 -928 1696 -1056
WIRE 1904 -928 1904 -1008
WIRE 1904 -928 1696 -928
WIRE 112 -880 112 -1104
WIRE 496 -832 496 -896
WIRE 496 -832 176 -832
WIRE 496 -736 496 -832
WIRE 496 -560 496 -656
WIRE 1904 -512 1904 -928
WIRE -16 -432 -48 -432
WIRE 112 -432 112 -784
WIRE 112 -432 64 -432
WIRE 160 -432 112 -432
WIRE 288 -432 240 -432
WIRE -48 -320 -48 -432
WIRE 288 -320 288 -432
WIRE -352 -272 -352 -368
WIRE -352 -272 -416 -272
WIRE -272 -272 -272 -368
WIRE -112 -272 -272 -272
WIRE 784 -272 352 -272
WIRE 896 -272 784 -272
WIRE 1376 -272 976 -272
WIRE 1456 -272 1456 -1008
WIRE 1456 -272 1376 -272
WIRE 1904 -224 1904 -432
WIRE 784 -208 784 -272
WIRE -352 -176 -352 -272
WIRE -272 -176 -272 -272
WIRE 784 -80 784 -128
WIRE 1456 16 1456 -272
WIRE -48 64 -48 -224
WIRE 1392 64 -48 64
WIRE 288 128 288 -224
WIRE 288 128 144 128
WIRE -1632 208 -1632 144
WIRE -1184 208 -1184 144
WIRE -48 240 -48 64
WIRE 288 240 288 128
WIRE 144 288 144 128
WIRE 144 288 16 288
WIRE 224 288 144 288
WIRE -1632 336 -1632 288
WIRE -1184 336 -1184 288
WIRE 1456 464 1456 112
WIRE -48 512 -48 336
WIRE 288 512 288 336
WIRE -1632 608 -1632 544
WIRE -1168 624 -1168 544
WIRE -1632 784 -1632 688
WIRE -1168 784 -1168 704
WIRE -48 816 -48 592
WIRE 112 816 -48 816
WIRE 288 816 288 592
WIRE 288 816 112 816
WIRE 112 880 112 816
WIRE 1456 880 1456 544
FLAG -1632 784 0
FLAG -1168 784 0
FLAG -1184 336 0
FLAG -1632 336 0
FLAG -1632 544 Vin+
FLAG -1168 544 Vin-
FLAG -1632 144 V+
FLAG -1184 144 V-
FLAG 112 880 V-
FLAG 784 -80 0
FLAG 1904 -224 V-
FLAG 1696 -1424 V+
FLAG 496 -560 0
FLAG 304 -1424 V+
FLAG 1456 880 V-
FLAG -416 -272 Vin+
FLAG 1376 -272 Vo
DATAFLAG 1456 336 ""
DATAFLAG 1456 -1200 ""
DATAFLAG 1728 -1056 ""
DATAFLAG -176 -272 ""
DATAFLAG 480 -272 ""
DATAFLAG 288 -32 ""
DATAFLAG 112 -640 "Ic(Q6)"
DATAFLAG 288 432 "Ie(Q8)"
DATAFLAG -48 432 "Ie(Q7)"
DATAFLAG 1456 688 "I(R1)"
DATAFLAG 1104 -272 "I(R4)"
DATAFLAG 1456 -272 ""
DATAFLAG 1456 -128 "Ic(Q3)"
DATAFLAG 784 -272 ""
DATAFLAG 1904 -1232 ""
DATAFLAG -48 -368 ""
DATAFLAG 288 -384 ""
DATAFLAG 1904 -640 "I(R6)"
DATAFLAG 1456 -928 "Ic(Q4)"
DATAFLAG 1072 64 ""
DATAFLAG 1904 -912 ""
DATAFLAG 1456 -592 ""
DATAFLAG 128 288 ""
DATAFLAG -48 -160 "Ic(Q1)"
DATAFLAG -48 160 "Ic(Q7)"
DATAFLAG 112 -432 ""
SYMBOL res 304 608 R180
WINDOW 0 36 76 Left 2
WINDOW 3 36 40 Left 2
SYMATTR InstName R2
SYMATTR Value 100
SYMBOL res -32 608 R180
WINDOW 0 36 76 Left 2
WINDOW 3 36 40 Left 2
SYMATTR InstName R3
SYMATTR Value 100
SYMBOL npn 1392 16 R0
SYMATTR InstName Q3
SYMATTR Value BC547B
SYMBOL voltage -1632 192 R0
WINDOW 123 0 0 Left 2
WINDOW 39 0 0 Left 2
SYMATTR InstName V1
SYMATTR Value 25
SYMBOL voltage -1184 192 R0
WINDOW 123 0 0 Left 2
WINDOW 39 0 0 Left 2
SYMATTR InstName V2
SYMATTR Value -25
SYMBOL voltage -1632 592 R0
WINDOW 123 0 0 Left 2
WINDOW 39 0 0 Left 2
SYMATTR InstName V3
SYMATTR Value SINE(0 80m 10k)
SYMBOL voltage -1168 608 R0
WINDOW 123 0 0 Left 2
WINDOW 39 0 0 Left 2
SYMATTR InstName V4
SYMATTR Value SINE(0 -1 10k)
SYMBOL res 1440 448 R0
SYMATTR InstName R1
SYMATTR Value 10
SYMBOL res 800 -112 R180
WINDOW 0 36 76 Left 2
WINDOW 3 36 40 Left 2
SYMATTR InstName R5
SYMATTR Value 400
SYMBOL pnp 1520 -1008 R180
SYMATTR InstName Q4
SYMATTR Value BC557B
SYMBOL pnp 1840 -1008 M180
SYMATTR InstName Q5
SYMATTR Value BC557B
SYMBOL res 1888 -528 R0
SYMATTR InstName R6
SYMATTR Value 50k
SYMBOL pnp 176 -784 R180
SYMATTR InstName Q6
SYMATTR Value BC557B
SYMBOL res 96 -1200 R0
SYMATTR InstName R8
SYMATTR Value 1k
SYMBOL res 480 -752 R0
SYMATTR InstName R9
SYMATTR Value 10k
SYMBOL diode 480 -960 R0
SYMATTR InstName D1
SYMATTR Value D1N4148
SYMBOL diode 480 -1088 R0
SYMATTR InstName D2
SYMATTR Value D1N4148
SYMBOL diode 480 -1200 R0
SYMATTR InstName D3
SYMATTR Value D1N4148
SYMBOL diode 480 -1328 R0
SYMATTR InstName D4
SYMATTR Value D1N4148
SYMBOL pnp -112 -224 M180
SYMATTR InstName Q1
SYMATTR Value BC557B
SYMBOL pnp 352 -224 R180
SYMATTR InstName Q2
SYMATTR Value BC557B
SYMBOL npn 16 240 M0
SYMATTR InstName Q7
SYMATTR Value BC547B
SYMBOL npn 224 240 R0
SYMATTR InstName Q8
SYMATTR Value BC547B
SYMBOL res 992 -288 R90
WINDOW 0 0 56 VBottom 2
WINDOW 3 32 56 VTop 2
SYMATTR InstName R4
SYMATTR Value 9.6k
SYMBOL res 256 -448 R90
WINDOW 0 0 56 VBottom 2
WINDOW 3 32 56 VTop 2
SYMATTR InstName R10
SYMATTR Value 0
SYMBOL res 80 -448 R90
WINDOW 0 0 56 VBottom 2
WINDOW 3 32 56 VTop 2
SYMATTR InstName R11
SYMATTR Value 0
SYMBOL res -256 -192 R90
WINDOW 0 0 56 VBottom 2
WINDOW 3 32 56 VTop 2
SYMATTR InstName R7
SYMATTR Value 400
SYMBOL res -256 -384 R90
WINDOW 0 0 56 VBottom 2
WINDOW 3 32 56 VTop 2
SYMATTR InstName R12
SYMATTR Value 9.6k
TEXT -1688 1104 Left 2 !.INCLUDE ../D1N4148.lib
TEXT -1688 1128 Left 2 !;op 0 1500u 1000u
TEXT -1672 1176 Left 2 !.tran 0 1500u 1000u
