Version 4
SHEET 1 1696 5956
WIRE 864 160 720 160
WIRE 512 176 -560 176
WIRE 864 176 864 160
WIRE 832 192 720 192
WIRE 272 208 16 208
WIRE 320 208 272 208
WIRE 464 208 400 208
WIRE 512 208 464 208
WIRE 752 224 720 224
WIRE 752 256 752 224
WIRE -560 352 -560 176
WIRE 16 352 16 208
WIRE 272 368 272 208
WIRE 608 368 272 368
WIRE 832 368 832 192
WIRE 832 368 688 368
WIRE 464 400 464 208
WIRE 272 416 272 368
WIRE 832 432 832 368
WIRE -304 464 -304 208
WIRE 832 560 832 512
WIRE 272 576 272 480
WIRE 464 576 464 464
WIRE 464 576 272 576
WIRE -560 592 -560 432
WIRE 272 624 272 576
WIRE 16 640 16 432
WIRE -304 816 -304 544
WIRE -304 816 -480 816
WIRE -208 816 -304 816
WIRE -480 880 -480 816
WIRE -208 896 -208 816
WIRE -480 1024 -480 960
WIRE -208 1024 -208 976
WIRE -528 1040 -656 1040
WIRE -256 1040 -320 1040
WIRE -656 1056 -656 1040
WIRE -528 1088 -576 1088
WIRE -256 1088 -288 1088
WIRE -576 1168 -576 1088
WIRE -320 1168 -320 1040
WIRE -320 1168 -576 1168
WIRE -288 1168 -288 1088
WIRE 0 1168 -288 1168
WIRE -576 1216 -576 1168
WIRE -480 1216 -480 1104
WIRE -208 1216 -208 1104
WIRE 0 1216 0 1168
WIRE -576 1328 -576 1296
WIRE 0 1328 0 1296
FLAG -560 592 0
FLAG 832 560 0
FLAG 752 256 0
FLAG 864 176 0
FLAG 272 624 0
FLAG -480 1216 0
FLAG -576 1328 0
FLAG -656 1056 0
FLAG -208 1216 0
FLAG 0 1328 0
FLAG 16 640 0
FLAG 272 208 Vout
SYMBOL AutoGenerated\\LM2576_TRANS 608 192 R0
SYMATTR InstName U1
SYMBOL voltage -560 336 R0
WINDOW 123 0 0 Left 0
WINDOW 39 0 0 Left 0
SYMATTR InstName V1
SYMATTR Value 30
SYMBOL ind 304 224 R270
WINDOW 0 32 56 VTop 2
WINDOW 3 5 56 VBottom 2
SYMATTR InstName L1
SYMATTR Value 200µ
SYMBOL cap 256 416 R0
SYMATTR InstName C1
SYMATTR Value 2m
SYMBOL diode 480 464 R180
WINDOW 0 24 64 Left 2
WINDOW 3 24 0 Left 2
SYMATTR InstName D1
SYMBOL res 704 352 R90
WINDOW 0 0 56 VBottom 2
WINDOW 3 32 56 VTop 2
SYMATTR InstName R2
SYMATTR Value 50.36k
SYMBOL res 848 528 R180
WINDOW 0 36 76 Left 2
WINDOW 3 36 40 Left 2
SYMATTR InstName R1
SYMATTR Value 3.3k
SYMBOL sw -480 1008 R0
SYMATTR InstName S1
SYMATTR Value SWITCH
SYMBOL voltage -576 1200 R0
WINDOW 123 0 0 Left 0
WINDOW 39 0 0 Left 0
SYMATTR InstName V3
SYMATTR Value PULSE(0 30 150m 1n 1n 10 20)
SYMBOL res -496 864 R0
SYMATTR InstName R3
SYMATTR Value 40
SYMBOL res -224 880 R0
SYMATTR InstName R4
SYMATTR Value 400
SYMBOL sw -208 1008 R0
SYMATTR InstName S2
SYMATTR Value SWITCH
SYMBOL voltage 0 1200 R0
WINDOW 123 0 0 Left 0
WINDOW 39 0 0 Left 0
SYMATTR InstName V2
SYMATTR Value 10
SYMBOL res -320 448 R0
SYMATTR InstName R5
SYMATTR Value 1µ
SYMBOL res 0 336 R0
SYMATTR InstName R6
SYMATTR Value 40
TEXT -592 648 Left 2 !;op
TEXT -600 680 Left 2 !.tran 0 200m 0
TEXT -696 1440 Left 2 !.model SWITCH SW(Ron=1m Roff=100Meg Vt=0 Vh=0)
