Version 4
SHEET 1 1888 1348
WIRE 576 -832 128 -832
WIRE 128 -768 128 -832
WIRE 128 -768 -64 -768
WIRE 288 -768 128 -768
WIRE 576 -608 576 -832
WIRE -64 -544 -64 -768
WIRE 288 -544 288 -768
WIRE 576 -448 576 -528
WIRE -64 -288 -64 -464
WIRE 288 -288 288 -464
WIRE 288 -288 272 -288
WIRE 112 -240 0 -240
WIRE 208 -240 112 -240
WIRE 112 -144 112 -240
WIRE 272 -144 272 -192
WIRE 272 -144 112 -144
WIRE -64 0 -64 -192
WIRE -64 0 -96 0
WIRE -96 32 -96 0
WIRE 272 256 272 -144
WIRE -96 272 -96 96
WIRE 432 304 336 304
WIRE -160 320 -304 320
WIRE -304 480 -304 320
WIRE -96 480 -96 368
WIRE 128 480 -96 480
WIRE 272 480 272 352
WIRE 272 480 128 480
WIRE 432 496 432 304
WIRE 128 560 128 480
WIRE 128 752 128 640
WIRE 128 896 128 832
WIRE -304 1088 -304 560
WIRE 80 1088 -304 1088
WIRE 432 1088 432 576
WIRE 432 1088 160 1088
WIRE -304 1136 -304 1088
WIRE 432 1136 432 1088
WIRE -304 1280 -304 1216
WIRE 432 1280 432 1216
FLAG 128 896 0
FLAG 576 -448 0
FLAG 432 1280 0
FLAG -304 1280 0
SYMBOL pnp 0 -192 R180
SYMATTR InstName Q1
SYMATTR Value BC558B
SYMBOL pnp 208 -192 M180
SYMATTR InstName Q2
SYMATTR Value BC558B
SYMBOL res -80 -560 R0
SYMATTR InstName R2
SYMATTR Value 500
SYMBOL res 272 -560 R0
SYMATTR InstName R3
SYMATTR Value 500
SYMBOL res 112 544 R0
SYMATTR InstName R1
SYMATTR Value 2.2k
SYMBOL voltage 128 736 R0
WINDOW 123 0 0 Left 0
WINDOW 39 0 0 Left 0
SYMATTR InstName V1
SYMATTR Value -6
SYMBOL voltage 576 -624 R0
WINDOW 123 0 0 Left 0
WINDOW 39 0 0 Left 0
SYMATTR InstName V2
SYMATTR Value 20
SYMBOL npn 336 256 M0
SYMATTR InstName Q13
SYMATTR Value BC548B
SYMBOL npn -160 272 R0
SYMATTR InstName Q12
SYMATTR Value BC548B
SYMBOL diode -112 32 R0
SYMATTR InstName D1
SYMATTR Value D1N4148
SYMBOL voltage 176 1088 R90
WINDOW 0 -32 56 VBottom 2
WINDOW 3 32 56 VTop 2
WINDOW 123 60 56 VTop 2
WINDOW 39 0 0 Left 0
SYMATTR InstName V3
SYMATTR Value 0
SYMATTR Value2 AC 1
SYMBOL voltage -304 464 R0
WINDOW 123 0 0 Left 0
WINDOW 39 0 0 Left 0
SYMATTR InstName V4
SYMATTR Value 1
SYMBOL voltage 432 480 R0
WINDOW 123 0 0 Left 0
WINDOW 39 0 0 Left 0
SYMATTR InstName V5
SYMATTR Value 1
SYMBOL ind -320 1120 R0
SYMATTR InstName L1
SYMATTR Value 100000g
SYMBOL ind 416 1120 R0
SYMATTR InstName L2
SYMATTR Value 100000g
TEXT 1560 -592 Left 2 !.INCLUDE ../../BC548B.lib
TEXT 1568 -560 Left 2 !.INCLUDE ../../D1N4148.lib
TEXT 1560 -528 Left 2 !.INCLUDE ../../BC558B.lib
TEXT 800 -112 Left 2 !.ac dec 10000 1 100k
